!!>>>>>>>>>>>>>>>>>>>>>>>>>>>>>>>>>>>>>>>>>>>>>>>>>>>>>>>>>>>>>>>>>>>>>>
!! NEMO/OCE Configuration namelist : overwrite default values defined in SHARED/namelist_ref
!!>>>>>>>>>>>>>>>>>>>>>>>>>>>>>>>>>>>>>>>>>>>>>>>>>>>>>>>>>>>>>>>>>>>>>>
!! NEMO/OCE  :  1 - Domain & run manager (namrun, namcfg, namdom, namtsd, namcrs, namc1d, namc1d_uvd)
!! namelists    2 - Surface boundary (namsbc, namsbc_flx, namsbc_blk, namsbc_cpl,
!!                                    namsbc_sas, namtra_qsr, namsbc_rnf,
!!                                    namsbc_isf, namsbc_iscpl, namsbc_apr,
!!                                    namsbc_ssr, namsbc_wave, namberg)
!!              3 - lateral boundary (namlbc, namagrif, nambdy, nambdy_tide)
!!              4 - top/bot boundary (namdrg, namdrg_top, namdrg_bot, nambbc, nambbl)
!!              5 - Tracer           (nameos, namtra_adv, namtra_ldf, namtra_eiv, namtra_dmp)
!!              6 - dynamics         (namdyn_adv, namdyn_vor, namdyn_hpg, namdyn_spg, namdyn_ldf)
!!              7 - Vertical physics (namzdf, namzdf_ric, namzdf_tke, namzdf_gls, namzdf_iwm)
!!              8 - diagnostics      (namnc4, namtrd, namspr, namflo, namhsb)
!!              9 - Obs & Assim      (namobs, nam_asminc)
!!             10 - miscellaneous    (nammpp, namctl, namsto)
!!>>>>>>>>>>>>>>>>>>>>>>>>>>>>>>>>>>>>>>>>>>>>>>>>>>>>>>>>>>>>>>>>>>>>>>

!!======================================================================
!!              ***  Domain & Run management namelists  ***           !!
!!                                                                    !!
!!   namrun       parameters of the run
!!   namdom       space and time domain
!!   namcfg       parameters of the configuration                       (default: user defined GYRE)
!!   namwad       Wetting and drying                                    (default: OFF)
!!   namtsd       data: temperature & salinity                          (default: OFF)
!!   namcrs       coarsened grid (for outputs and/or TOP)               (ln_crs =T)
!!   namc1d       1D configuration options                              ("key_c1d")
!!   namc1d_dyndmp 1D newtonian damping applied on currents             ("key_c1d")
!!   namc1d_uvd   1D data (currents)                                    ("key_c1d")
!!======================================================================
!
!-----------------------------------------------------------------------
&namrun        !   parameters of the run
!-----------------------------------------------------------------------
   cn_exp      =  "UK500" !"UK500_TideEraWadBdyIcs" !  experience name
   nn_it000    =  1   !  first time step
   nn_itend    =  66960    ! last  time step
   nn_date0    =  19930701 !  date at nit_0000 (format yyyymmdd) used if ln_rstart=F or (ln_rstart=T and nn_rstctl=0 or 1)
   nn_time0    =       0   !  initial time of day in hhmm
   nn_leapy    =       1   !  Leap year calendar (1) or not (0)
   ln_rstart   = .false.   !  start from rest (F) or from a restart file (T)
      nn_euler    =    1      !  = 0 : start with forward time step if ln_rstart=T
      nn_rstctl   =    0      !  restart control ==> activated only if ln_rstart=T
      !                          !    = 0 nn_date0 read in namelist ; nn_it000 : read in namelist
      !                          !    = 1 nn_date0 read in namelist ; nn_it000 : check consistancy between namelist and restart
      !                          !    = 2 nn_date0 read in restart  ; nn_it000 : check consistancy between namelist and restart
      cn_ocerst_in    = "UK500_00002160_restart"   !  suffix of ocean restart name (input)
      cn_ocerst_indir = "./RESTART"         !  directory from which to read input ocean restarts
      cn_ocerst_out   = "restart"   !  suffix of ocean restart name (output)
      cn_ocerst_outdir = "./RESTART"        !  directory in which to write output ocean restarts
   nn_istate   =       0   !  output the initial state (1) or not (0)
   ln_rst_list = .true.   !  output restarts at list of times using nn_stocklist (T) or at set frequency with nn_stock (F)
   nn_stock    =       0   !  used only if ln_rst_list = F: output restart freqeuncy (modulo referenced to 1)
      !                          !    =  0 force to write restart files only at the end of the run
      !                          !    = -1 do not do any restart
   nn_stocklist = 2160,4320,0,0,0,0,0,0,0,0 ! List of timesteps when a restart file is to be written
   nn_write    =       0   !  used only if key_iomput is not defined: output frequency (modulo referenced to nn_it000)
      !                          !    =  0 force to write output files only at the end of the run
      !                          !    = -1 do not do any output file
   ln_mskland  = .true.    !  mask land points in NetCDF outputs
   ln_cfmeta   = .false.   !  output additional data to netCDF files required for compliance with the CF metadata standard
   ln_clobber  = .true.    !  clobber (overwrite) an existing file
   nn_chunksz  =       0   !  chunksize (bytes) for NetCDF file (works only with iom_nf90 routines)
   ln_xios_read = .TRUE.  !  use XIOS to read restart file (only for a single file restart)
   nn_wxios = 1      !  use XIOS to write restart file 0 - no, 1 - single file output, 2 - multiple file output
/
!-----------------------------------------------------------------------
&namdom        !   time and space domain
!-----------------------------------------------------------------------
   rn_rdt      =  40.      !  time step for the dynamics and tracer
   ln_meshmask = .false.   !  =T create a mesh file
/
!-----------------------------------------------------------------------
&namcfg        !   parameters of the configuration                      (default: use namusr_def in namelist_cfg)
!-----------------------------------------------------------------------
   ln_read_cfg = .true.    !  (=T) read the domain configuration file
      cn_domcfg = "domain_cfg" !"domain_cfg"  ! domain configuration filename
/
!-----------------------------------------------------------------------
&namtsd        !    Temperature & Salinity Data  (init/dmp)             (default: OFF)
!-----------------------------------------------------------------------
   !                       ! =T  read T-S fields for:
   ln_tsd_init   = .true.         !  ocean initialisation
   ln_tsd_dmp    = .false.         !  T-S restoring   (see namtra_dmp)
   ln_tsd_interp = .false.          !  Interpolation of T & S in the verticalinput data (T) or not (F)

   cn_dir      = './ICS/'      !  root directory for the T-S data location
   !___________!_________________________!___________________!___________!_____________!________!___________!__________________!__________!_______________!
   !           !  file name              ! frequency (hours) ! variable  ! time interp.!  clim  ! 'yearly'/ ! weights filename ! rotation ! land/sea mask !
   !           !                         !  (if <0  months)  !   name    !   (logical) !  (T/F) ! 'monthly' !                  ! pairing  !    filename   !
   sn_tem = 'UK500_ICS',  24.     , 'votemper',   .false.    , .false. , 'daily'  ,    ''            ,    ''    ,    ''
   sn_sal = 'UK500_ICS',  24.     , 'vosaline',   .false.    , .false. , 'daily'  ,    ''            ,    ''    ,    ''
/
!-----------------------------------------------------------------------
&namwad        !   Wetting and drying                                   (default F)
!-----------------------------------------------------------------------
   ln_wd_il    = .false.   !  T/F activation of iterative   limiter
   ln_wd_dl    = .true.   !  T/F activation of directional limiter
   ln_wd_dl_bc = .true.   !  T/F Directional limiteer Baroclinic option
   ln_wd_dl_rmp = .true.  !  T/F Turn on directional limiter ramp
   rn_wdmin0   =  0.9    !  depth at which WaD starts
   rn_wdmin1   =  0.3      !  Minimum wet depth on dried cells
   rn_wdmin2   =  0.0001   !  Tolerance of min wet depth on dried cells
   rn_wdld     =  25     !  Land elevation below which WaD is allowed
   nn_wdit     =   20      !  Max iterations for WaD limiter
   rn_wd_sbcdep =  5.0     !  Depth at which to taper sbc fluxes
   rn_wd_sbcfra =  0.999   !  Fraction of SBC fluxes at taper depth (Must be <1)
/
!!======================================================================
!!            ***  Surface Boundary Condition namelists  ***          !!
!!                                                                    !!
!!   namsbc          surface boundary condition manager                 (default: NO selection)
!!   namsbc_flx      flux               formulation                     (ln_flx     =T)
!!   namsbc_blk      Bulk formulae formulation                          (ln_blk     =T)
!!   namsbc_cpl      CouPLed            formulation                     ("key_oasis3" )
!!   namsbc_sas      Stand-Alone Surface module                         (SAS_SRC  only)
!!   namsbc_iif      Ice-IF: use observed ice cover                     (nn_ice = 1   )
!!   namtra_qsr      penetrative solar radiation                        (ln_traqsr  =T)
!!   namsbc_ssr      sea surface restoring term (for T and/or S)        (ln_ssr     =T)
!!   namsbc_rnf      river runoffs                                      (ln_rnf     =T)
!!   namsbc_apr      Atmospheric Pressure                               (ln_apr_dyn =T)
!!   namsbc_isf      ice shelf melting/freezing                         (ln_isfcav  =T : read (ln_read_cfg=T) or set or usr_def_zgr )
!!   namsbc_iscpl    coupling option between land ice model and ocean   (ln_isfcav  =T)
!!   namsbc_wave     external fields from wave model                    (ln_wave    =T)
!!   namberg         iceberg floats                                     (ln_icebergs=T)
!!======================================================================
!
!-----------------------------------------------------------------------
&namsbc        !   Surface Boundary Condition manager                   (default: NO selection)
!-----------------------------------------------------------------------
   nn_fsbc     = 1         !  frequency of SBC module call
      !                    !  (control sea-ice & iceberg model call)
                     ! Type of air-sea fluxes
   ln_usr      = .false.   !  user defined formulation                  (T => check usrdef_sbc)
   ln_flx      = .false.   !  flux formulation                          (T => fill namsbc_flx )
   ln_blk      = .true.   !  Bulk formulation                          (T => fill namsbc_blk )
      !              ! Type of coupling (Ocean/Ice/Atmosphere) :
   ln_cpl      = .false.   !  atmosphere coupled   formulation          ( requires key_oasis3 )
   ln_mixcpl   = .false.   !  forced-coupled mixed formulation          ( requires key_oasis3 )
   nn_components = 0       !  configuration of the opa-sas OASIS coupling
      !                    !  =0 no opa-sas OASIS coupling: default single executable config.
      !                    !  =1 opa-sas OASIS coupling: multi executable config., OPA component
      !                    !  =2 opa-sas OASIS coupling: multi executable config., SAS component
                     ! Sea-ice :
   nn_ice      = 0         !  =0 no ice boundary condition
      !                    !  =1 use observed ice-cover                 (  => fill namsbc_iif )
      !                    !  =2 or 3 automatically for SI3 or CICE    ("key_si3" or "key_cice")
      !                    !          except in AGRIF zoom where it has to be specified
   ln_ice_embd = .false.   !  =T embedded sea-ice (pressure + mass and salt exchanges)
      !                    !  =F levitating ice (no pressure, mass and salt exchanges)
                     ! Misc. options of sbc :
   ln_traqsr   = .true.   !  Light penetration in the ocean            (T => fill namtra_qsr)
   ln_dm2dc    = .false.   !  daily mean to diurnal cycle on short wave
   ln_ssr      = .false.   !  Sea Surface Restoring on T and/or S       (T => fill namsbc_ssr)
   nn_fwb      = 0         !  FreshWater Budget: =0 unchecked
      !                    !     =1 global mean of e-p-r set to zero at each time step
      !                    !     =2 annual global mean of e-p-r set to zero
   ln_rnf      = .false.   !  runoffs                                   (T => fill namsbc_rnf)
   ln_apr_dyn  = .false.   !  Patm gradient added in ocean & ice Eqs.   (T => fill namsbc_apr )
   ln_isf      = .false.   !  ice shelf                                 (T   => fill namsbc_isf & namsbc_iscpl)
   ln_wave     = .false.   !  Activate coupling with wave  (T => fill namsbc_wave)
   ln_cdgw     = .false.   !  Neutral drag coefficient read from wave model (T => ln_wave=.true. & fill namsbc_wave)
   ln_sdw      = .false.   !  Read 2D Surf Stokes Drift & Computation of 3D stokes drift (T => ln_wave=.true. & fill namsbc_wave)
   nn_sdrift   =  0        !  Parameterization for the calculation of 3D-Stokes drift from the surface Stokes drift
      !                    !   = 0 Breivik 2015 parameterization: v_z=v_0*[exp(2*k*z)/(1-8*k*z)]
      !                    !   = 1 Phillips:                      v_z=v_o*[exp(2*k*z)-beta*sqrt(-2*k*pi*z)*erfc(sqrt(-2*k*z))]
      !                    !   = 2 Phillips as (1) but using the wave frequency from a wave model
   ln_tauwoc   = .false.   !  Activate ocean stress modified by external wave induced stress (T => ln_wave=.true. & fill namsbc_wave)
   ln_tauw     = .false.   !  Activate ocean stress components from wave model
   ln_stcor    = .false.   !  Activate Stokes Coriolis term (T => ln_wave=.true. & ln_sdw=.true. & fill namsbc_wave)
   nn_lsm      = 0         !  =0 land/sea mask for input fields is not applied (keep empty land/sea mask filename field) ,
                           !  =1:n number of iterations of land/sea mask application for input fields (fill land/sea mask filename field)
/
!-----------------------------------------------------------------------
&namsbc_blk   !   namsbc_blk  generic Bulk formula                      (ln_blk = T)
!-----------------------------------------------------------------------
!              !  file name                   ! frequency (hours) ! variable  ! time interp. !  clim  ! 'yearly'/ ! weights                              ! rotation ! land/sea mask !
!              !                              !  (if <0  months)  !   name    !   (logical)  !  (T/F) ! 'monthly' ! filename                             ! pairing  ! filename      !
   sn_wndi     = 'ERA5_U10'                     ,         1         , 'U10',        .true.    , .false. , 'yearly'  , 'weights_era5_UK500_bicubic.nc'   , 'Uwnd'   , 'ERA5_LSM'
   sn_wndj     = 'ERA5_V10'                     ,         1         , 'V10',        .true.    , .false. , 'yearly'  , 'weights_era5_UK500_bicubic.nc'   , 'Vwnd'   , 'ERA5_LSM'
   sn_qsr      = 'ERA5_MSDWSWRF'                ,         1         , 'MSDWSWRF',   .true.    , .false. , 'yearly'  , 'weights_era5_UK500_bilin.nc'  , ''       , 'ERA5_LSM'
   sn_qlw      = 'ERA5_MSDWLWRF'                ,         1         , 'MSDWLWRF',   .true.    , .false. , 'yearly'  , 'weights_era5_UK500_bilin.nc'  , ''       , 'ERA5_LSM'
   sn_tair     = 'ERA5_T2M'                     ,         1         , 'T2M',        .true.    , .false. , 'yearly'  , 'weights_era5_UK500_bilin.nc'  , ''       , 'ERA5_LSM'
   sn_humi     = 'ERA5_SPH'                     ,         1         , 'SPH',        .true.    , .false. , 'yearly'  , 'weights_era5_UK500_bilin.nc'  , ''       , 'ERA5_LSM'
   sn_prec     = 'ERA5_MTPR'                    ,         1         , 'MTPR',       .true.    , .false. , 'yearly'  , 'weights_era5_UK500_bilin.nc'  , ''       , 'ERA5_LSM'
   sn_snow     = 'ERA5_MSR'                     ,         1         , 'MSR'    ,    .true.    , .false. , 'yearly'  , 'weights_era5_UK500_bilin.nc'  , ''       , 'ERA5_LSM'
   sn_slp      = 'ERA5_MSL'                     ,         1         , 'MSL',        .true.    , .false. , 'yearly'  , 'weights_era5_UK500_bilin.nc'  , ''       , 'ERA5_LSM' ! DUMMY variable. Fill with T
!   sn_slp      = 'slp.15JUNE2009_fill'        ,         6         , 'SLP'     ,    .true.    , .true. , 'yearly'  , 'weights_core_orca2_bilinear_noc.nc'  , ''       , ''
!   sn_tdif     = 'taudif_core'                 ,        24         , 'taudif'  ,   .true.    , .true. , 'yearly'  , 'weights_bilinear_atmos.nc'  , ''       , ''
   !                    !  bulk algorithm :
   ln_NCAR     = .false.   ! "NCAR"      algorithm   (Large and Yeager 2008)
   ln_COARE_3p0= .false.   ! "COARE 3.0" algorithm   (Fairall et al. 2003)
   ln_COARE_3p5= .false.   ! "COARE 3.5" algorithm   (Edson et al. 2013)
   ln_ECMWF    = .true.   ! "ECMWF"     algorithm   (IFS cycle 31)
   !
   cn_dir      = '../../BUILD_CFG/SURFACE_FORCING/'      !  root directory for the location of the bulk files
   ln_taudif   = .false.   !  HF tau contribution: use "mean of stress module - module of the mean stress" data
   rn_zqt      = 2.       !  Air temperature and humidity reference height (m)
   rn_zu       = 10.       !  Wind vector reference height (m)
   rn_pfac     = 1.        !  multiplicative factor for precipitation (total & snow)
   rn_efac     = 1.        !  multiplicative factor for evaporation (0. or 1.)
   rn_vfac     = 0.        !  multiplicative factor for ocean/ice velocity
                           !  in the calculation of the wind stress (0.=absolute winds or 1.=relative winds)
   ln_Cd_L12   = .false.   !  Modify the drag ice-atm and oce-atm depending on ice concentration
                           !  This parameterization is from Lupkes et al. (JGR 2012)
/
!-----------------------------------------------------------------------
&namtra_qsr    !   penetrative solar radiation                          (ln_traqsr =T)
!-----------------------------------------------------------------------
   !                       !  type of penetration                        (default: NO selection)
   ln_qsr_rgb  = .true.       !  RGB light penetration (Red-Green-Blue)
   ln_qsr_2bd  = .false.      !  2BD light penetration (two bands)
   ln_qsr_bio  = .false.      !  bio-model light penetration
!   ln_qsr_kd490 = .false.
   !                       !  RGB & 2BD choices:
   rn_abs      =   0.58       !  RGB & 2BD: fraction absorbed in the very near surface
   rn_si0      =   0.35       !  RGB & 2BD: shortess depth of extinction
   nn_chldta   =      0       !  RGB : Chl data (=1) or cst value (=0)
   rn_si1      =   23.0       !  2BD : longest depth of extinction

   cn_dir      = './'      !  root directory for the chlorophyl data location
   !___________!_________________________!___________________!___________!_____________!________!___________!__________________!__________!_______________!
   !           !  file name              ! frequency (hours) ! variable  ! time interp.!  clim  ! 'yearly'/ ! weights filename ! rotation ! land/sea mask !
   !           !                         !  (if <0  months)  !   name    !   (logical) !  (T/F) ! 'monthly' !                  ! pairing  !    filename   !
   sn_chl      ='kd490'                  ,        -1         , 'kd_490'  ,   .true.    , .true. , 'yearly'  , ''               , ''       , ''
!   sn_kd490    ='kd490'                  ,        -1         , 'kd_490'  ,   .true.    , .true. , 'yearly'  , ''               , ''       , ''
/
!!======================================================================
!!               ***  Lateral boundary condition  ***                 !!
!!                                                                    !!
!!   namlbc        lateral momentum boundary condition                  (default: NO selection)
!!   namagrif      agrif nested grid   (read by child model only)       ("key_agrif")
!!   nam_tide      Tidal forcing                                        (default: OFF)
!!   nambdy        Unstructured open boundaries                         (default: OFF)
!!   nambdy_dta    Unstructured open boundaries - external data         (see  nambdy)
!!   nambdy_tide   tidal forcing at open boundaries                     (default: OFF)
!!======================================================================
!
!-----------------------------------------------------------------------
&namlbc        !   lateral momentum boundary condition                  (default: NO selection)
!-----------------------------------------------------------------------
   !                       !  free slip  !   partial slip  !   no slip   ! strong slip
   rn_shlat    =  0        !  shlat = 0  !  0 < shlat < 2  !  shlat = 2  !  2 < shlat
/
!-----------------------------------------------------------------------
&nam_tide      !   tide parameters                                      (default: OFF)
!-----------------------------------------------------------------------
   ln_tide     = .true.    ! Activate tides
      ln_tide_pot   = .true.                !  use tidal potential forcing
   ln_tide_ramp  = .true.               !  Use linear ramp for tides at startup
   rdttideramp   =   3.                 !  ramp duration in days
   dn_love_number = 0.69 !
    clname(1)='SA'
    clname(10)='Q1'
    clname(11)='P1'
    clname(12)='S1'
    clname(13)='J1'
    clname(14)='M2'
    clname(15)='N2'
    clname(16)='S2'
    clname(17)='K2'
    clname(18)='L2'
    clname(19)='T2'
    clname(2)='SSA'
    clname(20)='R2'
    clname(21)='MU2'
    clname(22)='NU2'
    clname(23)='2N2'
    clname(24)='MKS2'
    clname(25)='LA2'
    clname(26)='EPS2'
    clname(27)='M3'
    clname(28)='M4'
    clname(29)='M6'
    clname(3)='MM'
    clname(30)='M8'
    clname(31)='N4'
    clname(32)='S4'
    clname(33)='MN4'
    clname(34)='MS4'
    clname(4)='MF'
    clname(5)='MTM'
    clname(6)='MSF'
    clname(7)='MSQM'
    clname(8)='K1'
    clname(9)='O1'
/
!-----------------------------------------------------------------------
&nambdy        !  unstructured open boundaries                          (default: OFF)
!-----------------------------------------------------------------------
    ln_bdy         = .true.   !  Use unstructured open boundaries
    nb_bdy         =  1       !  number of open boundary sets
    !
    ln_coords_file = .true.                                 !  =T : read bdy coordinates from file
    cn_coords_file = 'OBC/199307/coordinates.bdy.nc' !  bdy coordinates files
    ln_mask_file   = .true.                 !  =T : read mask from file
    cn_mask_file   = 'nemo_mask.nc'                      !  name of mask file (if ln_mask_file=.TRUE.)
    cn_dyn2d       =  'flather'    !
    nn_dyn2d_dta   =  3                      !  = 0, bdy data are equal to the initial state
                                             !  = 1, bdy data are read in 'bdydata   .nc' files
                                             !  = 2, use tidal harmonic forcing data from files
                                             !  = 3, use external data AND tidal harmonic forcing
    cn_dyn3d      =  'specified'              ! 'zerograd','none'   !
    nn_dyn3d_dta  =   1                      !  = 0, bdy data are equal to the initial state
                                             !  = 1, bdy data are read in 'bdydata   .nc' files
    cn_tra        =  'frs'
    nn_tra_dta    =   1                       !  = 0, bdy data are equal to the initial state
                                             !  = 1, bdy data are read in 'bdydata   .nc' files

    ln_tra_dmp    =.false.                   !  open boudaries conditions for tracers
    ln_dyn3d_dmp  =.false.                   !  open boundary condition for baroclinic velocities
    rn_time_dmp   =  8.                      ! Damping time scale in days
    rn_time_dmp_out =  64.                   ! Outflow damping time scale
    nn_rimwidth   = 9                        !  width of the relaxation zone
    ln_vol        = .false.                  !  total volume correction (see nn_volctl parameter)
    nn_volctl     = 1                        !  = 0, the total water flux across open boundaries is zero
/
!!-----------------------------------------------------------------------
!&nambdy_index ! open boundaries - definition ("key_bdy")
!!-----------------------------------------------------------------------
!    ctypebdy = 'S'
!    nbdyind = -1
!/
!!-----------------------------------------------------------------------
!&nambdy_index ! open boundaries - definition ("key_bdy")
!!-----------------------------------------------------------------------
!    ctypebdy = 'W'
!    nbdyind = -1
!/
!-----------------------------------------------------------------------
!&nambdy_ssh
!-----------------------------------------------------------------------
  ln_ssh_bdy   = .false.
  rn_ssh_shift =   0.
!/
!-----------------------------------------------------------------------
&nambdy_dta    !  open boundaries - external data
!-----------------------------------------------------------------------
   ln_zinterp  = .false.       !  T if a vertical interpolation is required. Variables gdep[tuv] and e3[tuv] must exist in the file
   !                          !  automatically defined to T if the number of vertical levels in bdy dta /= jpk
   ln_full_vel = .true.       !  T if [uv]3d are "full" velocities and not only its baroclinic components
   !
   cn_dir  =    './OBC/199307/'
   !___________!_________________________!___________________!___________!_____________!________!___________!__________________!__________!_______________!
   !           !  file name              ! frequency (hours) ! variable  ! time interp.!  clim  ! 'yearly'/ ! weights filename ! rotation ! land/sea mask !
   !           !                         !  (if <0  months)  !   name    !   (logical) !  (T/F) ! 'monthly' !                  ! pairing  !    filename   !
   bn_ssh      = 'UK500_bdyT'        ,         24.       , 'sossheig',    .true.   , .false.,  'monthly'  ,    ''            ,   ''     ,     'nemo_mask.nc'
   bn_u2d      = 'UK500_bdyU'        ,         24.       , 'vobtcrtx',    .true.   , .false.,  'monthly'  ,    ''            ,   ''     ,     'nemo_mask.nc'
   bn_v2d      = 'UK500_bdyV'        ,         24.       , 'vobtcrty',    .true.   , .false.,  'monthly'  ,    ''            ,   ''     ,     'nemo_mask.nc'
   bn_u3d      = 'UK500_bdyU'        ,         24.       , 'vozocrtx',    .true.   , .false.,  'monthly'  ,    ''            ,   ''     ,     'nemo_mask.nc'
   bn_v3d      = 'UK500_bdyV'        ,         24.       , 'vomecrty',    .true.   , .false.,  'monthly'  ,    ''            ,   ''     ,     'nemo_mask.nc'
   bn_tem      = 'UK500_bdyT'        ,         24.       , 'votemper',    .true.   , .false.,  'monthly'  ,    ''            ,   ''     ,     'nemo_mask.nc'
   bn_sal      = 'UK500_bdyT'        ,         24.       , 'vosaline',    .true.   , .false.,  'monthly'  ,    ''            ,   ''     ,     'nemo_mask.nc'
/
!-----------------------------------------------------------------------
&nambdy_tide   !  tidal forcing at open boundaries
!-----------------------------------------------------------------------
   filtide      = 'TIDES/UK500_FES14_bdytide_'      !  file name root of tidal forcing files
!   ln_bdytide_2ddta = .true.                    !
!   ln_bdytide_conj  = .false.                   !
/
!!======================================================================
!!                ***  Top/Bottom boundary condition  ***             !!
!!                                                                    !!
!!   namdrg        top/bottom drag coefficient                          (default: NO selection)
!!   namdrg_top    top    friction                                      (ln_OFF =F & ln_isfcav=T)
!!   namdrg_bot    bottom friction                                      (ln_OFF =F)
!!   nambbc        bottom temperature boundary condition                (default: OFF)
!!   nambbl        bottom boundary layer scheme                         (default: OFF)
!!======================================================================
!
!-----------------------------------------------------------------------
&namdrg        !   top/bottom drag coefficient                          (default: NO selection)
!-----------------------------------------------------------------------
   ln_drg_OFF  = .false.   !  free-slip       : Cd = 0                  (F => fill namdrg_bot
   ln_lin      = .false.   !      linear  drag: Cd = Cd0 Uc0                   &   namdrg_top)
   ln_non_lin  = .false.   !  non-linear  drag: Cd = Cd0 |U|
   ln_loglayer = .true.    !  logarithmic drag: Cd = vkarmn/log(z/z0) |U|
   ln_drgimp   = .true.    !  implicit top/bottom friction flag
/
!-----------------------------------------------------------------------
&namdrg_top    !   TOP friction                                         (ln_drg_OFF =F & ln_isfcav=T)
!-----------------------------------------------------------------------
/
!-----------------------------------------------------------------------
&namdrg_bot    !   BOTTOM friction                                      (ln_drg_OFF =F)
!-----------------------------------------------------------------------
   rn_Cd0      =  2.5e-3   !  drag coefficient [-]
   rn_Uc0      =  0.4      !  ref. velocity [m/s] (linear drag=Cd0*Uc0)
   rn_Cdmax    =  0.1      !  drag value maximum [-] (logarithmic drag)
   rn_ke0      =  0.0e-3   !  background kinetic energy  [m2/s2] (non-linear cases)
   rn_z0       =  3.e-3    !  roughness [m] (ln_loglayer=T)
   ln_boost    = .false.   !  =T regional boost of Cd0 ; =F constant
      rn_boost =  50.         !  local boost factor  [-]
/
!-----------------------------------------------------------------------
&nambbc        !   bottom temperature boundary condition                (default: OFF)
!-----------------------------------------------------------------------